<?xml version="1.0" encoding="UTF-8"?>

<!-- generated on Fri Feb 15 13:26:54 2019 by Eclipse SUMO duarouter Version 1.1.0
<configuration xmlns:xsi="http://www.w3.org/2001/XMLSchema-instance" xsi:noNamespaceSchemaLocation="http://sumo.dlr.de/xsd/duarouterConfiguration.xsd">

    <input>
        <net-file value="/home/edwardchaos/Sumo/2019-02-15-13-26-51/osm.net.xml"/>
        <route-files value="/home/edwardchaos/Sumo/2019-02-15-13-26-51/osm.passenger.trips.xml"/>
    </input>

    <output>
        <output-file value="/home/edwardchaos/Sumo/2019-02-15-13-26-51/osm.passenger.rou.xml"/>
        <alternatives-output value="/home/edwardchaos/Sumo/2019-02-15-13-26-51/osm.passenger.rou.alt.xml"/>
    </output>

    <time>
        <begin value="0"/>
        <end value="3600.0"/>
    </time>

    <report>
        <no-warnings value="true"/>
        <ignore-errors value="true"/>
        <no-step-log value="true"/>
    </report>

</configuration>
-->

<routes xmlns:xsi="http://www.w3.org/2001/XMLSchema-instance" xsi:noNamespaceSchemaLocation="http://sumo.dlr.de/xsd/routes_file.xsd">
    
    <vType id="veh_passenger" color="cyan" laneChangeModel="DK2008" vClass="passenger"/>
    <vType id="person" vClass="pedestrian"/>
    <vType id="veh_pass" accel="4" decel="4" minGap="1" emergencyDecel="5" laneChangeModel="DK2008" carFollowModel="IDM" vClass="passenger"/>
    <vType id="veh_truck" accel="1.5" decel="3" minGap="5" emergencyDecel="5" laneChangeModel="DK2008" carFollowModel="ACC" vClass="truck"/>
    <vType id="veh_bus" accel="1.8" decel="3" minGap="2" emergencyDecel="5" laneChangeModel="DK2008"  carFollowModel="IDM" vClass="bus"/>
    <vType id="veh_taxi" accel="4" decel="4" minGap="4.5" emergencyDecel="5" laneChangeModel="DK2008" carFollowModel="BKerner" vClass="taxi"/>


    <route id="1" edges="10110018 10110016 10110010 10110013 10110071 10110000 10110001 10110003 10110008 10110007 10110028 10110029 10110038 10110049 10110051 10110050 10110052 10110054 10110055 10110062 10110061 10110057 10110060 10110058 10110059 10110047 10110036 10110037 10110019 10110020 10110021 10110023" />

    <route id="2" edges="10110060 10110056 10110033 10110030" />
    <route id="3" edges="10110059 10110056 10110033" />

    <route id="ns1" edges="10110018 10110022 10110048 10110057"/>
    <route id="ns2" edges="10110013 10110011 10110032 10110055"/>
    <route id="ns3" edges="10110001 10110007 10110038 10110050"/>
    <route id="we1" edges="10110021 10110016 10110071 10110003"/>
    <route id="we2" edges="10110037 10110034 10110030 10110028"/>
    <route id="we3" edges="10110059 10110056 10110053 10110049"/>
    <route id="sn1" edges="10110060 10110047 10110019 10110023"/>
    <route id="sn2" edges="10110062 10110033 10110012 10110010"/>
    <route id="sn3" edges="10110052 10110039 10110006 10110000"/>
    <route id="ew1" edges="10110008 10110009 10110017 10110020"/>
    <route id="ew2" edges="10110029 10110031 10110073 10110036"/>
    <route id="ew3" edges="10110051 10110054 10110061 10110058"/>





    <route id="r27" edges="10110073 10110036"/>
    <route id="r28" edges="10110073 10110019"/>
    <route id="r29" edges="10110022 10110048"/>
    <route id="r30" edges="10110073 10110048"/>
    <route id="r31" edges="10110047 10110036"/>
    <route id="r32" edges="10110047 10110034"/>
    <route id="r33" edges="10110022 10110036"/>
    <route id="r34" edges="10110022 10110034"/>


    <route id="left" edges="10110037 10110019"/>
    <route id="mid" edges="10110037 10110034"/>
    <route id="right" edges="10110037 10110048"/>



   
    <flow id="3" route="ns1" color="yellow" begin="0" end="3153600000" probability="0.005" type="veh_pass"/>
    <flow id="7" route="we2" color="yellow" begin="0" end="3153600000" probability="0.005" type="veh_pass"/>
    <flow id="9" route="sn1" color="yellow" begin="0" end="3153600000" probability="0.005" type="veh_pass"/>
    <flow id="13" route="ew2" color="yellow" begin="0" end="3153600000" probability="0.005" type="veh_pass"/>
    <flow id="15" route="ns1" color="yellow" begin="0" end="3153600000" probability="0.005" type="veh_pass"/>
    <flow id="19" route="we2" color="yellow" begin="0" end="3153600000" probability="0.005" type="veh_pass"/>
    <flow id="21" route="sn1" color="yellow" begin="0" end="3153600000" probability="0.005" type="veh_pass"/>
    <flow id="25" route="ew2" color="yellow" begin="0" end="3153600000" probability="0.05" type="veh_pass"/>



    <flow id="53" route="r27" color="yellow" begin="0" end="3153600000" probability="0.1" type="veh_pass"/>
    <flow id="54" route="r28" color="yellow" begin="0" end="3153600000" probability="0.1" type="veh_pass"/>
    <flow id="55" route="r29" color="yellow" begin="0" end="3153600000" probability="0.01" type="veh_pass"/>
    <flow id="56" route="r30" color="yellow" begin="0" end="3153600000" probability="0.01" type="veh_pass"/>
    <flow id="57" route="r31" color="yellow" begin="0" end="3153600000" probability="0.01" type="veh_pass"/>
    <flow id="58" route="r32" color="yellow" begin="0" end="3153600000" probability="0.01" type="veh_pass"/>
    <flow id="59" route="r33" color="yellow" begin="0" end="3153600000" probability="0.01" type="veh_pass"/>
    <flow id="60" route="r34" color="yellow" begin="0" end="3153600000" probability="0.01" type="veh_pass"/>
    <flow id="61" route="mid" color="yellow" begin="0" end="3153600000" probability="0.01" type="veh_pass"/>
    <!--<flow id="53" begin="0" end="3153600000" number="1" route="test" color="cyan" type="veh_passenger"/> -->  

    <!--<vehicle id="21" type="veh_passenger" route="loop1" color="cyan" depart="0"/>-->


</routes>
