<?xml version="1.0" encoding="UTF-8"?>

<!-- generated on 2020年01月20日 星期一 16时29分01秒 by Eclipse SUMO netedit Version 1.2.0
<configuration xmlns:xsi="http://www.w3.org/2001/XMLSchema-instance" xsi:noNamespaceSchemaLocation="http://sumo.dlr.de/xsd/netconvertConfiguration.xsd">

    <input>
        <sumo-net-file value="sumo.net.xml"/>
    </input>

    <output>
        <output-file value="sumo.net.xml"/>
    </output>

    <processing>
        <geometry.max-grade.fix value="false"/>
        <offset.disable-normalization value="true"/>
        <lefthand value="false"/>
    </processing>

    <junctions>
        <no-turnarounds value="true"/>
        <junctions.corner-detail value="5"/>
        <junctions.limit-turn-speed value="5.5"/>
        <rectangular-lane-cut value="false"/>
    </junctions>

    <pedestrian>
        <walkingareas value="false"/>
    </pedestrian>

</configuration>
-->

<net version="1.1" junctionCornerDetail="5" limitTurnSpeed="5.50" xmlns:xsi="http://www.w3.org/2001/XMLSchema-instance" xsi:noNamespaceSchemaLocation="http://sumo.dlr.de/xsd/net_file.xsd">

    <location netOffset="-631067.00,-4853808.00" convBoundary="0.00,0.00,787.00,785.00" origBoundary="631067.00,4853808.00,631854.00,4854593.00" projParameter="!"/>

    <edge id=":99810000_0" function="internal">
        <lane id=":99810000_0_0" index="0" speed="6.51" length="9.03" shape="584.00,207.60 583.65,205.15 582.60,203.40 580.85,202.35 578.40,202.00"/>
    </edge>
    <edge id=":99810000_1" function="internal">
        <lane id=":99810000_1_0" index="0" speed="15.00" length="27.20" shape="584.00,207.60 584.00,180.40"/>
        <lane id=":99810000_1_1" index="1" speed="15.00" length="27.20" shape="587.20,207.60 587.20,180.40"/>
        <lane id=":99810000_1_2" index="2" speed="15.00" length="27.20" shape="590.40,207.60 590.40,180.40"/>
    </edge>
    <edge id=":99810000_4" function="internal">
        <lane id=":99810000_4_0" index="0" speed="10.36" length="7.98" shape="590.40,207.60 591.35,200.95 592.00,199.87"/>
    </edge>
    <edge id=":99810000_5" function="internal">
        <lane id=":99810000_5_0" index="0" speed="3.65" length="2.34" shape="590.40,207.60 591.20,206.40 592.00,206.00"/>
    </edge>
    <edge id=":99810000_24" function="internal">
        <lane id=":99810000_24_0" index="0" speed="10.36" length="16.53" shape="592.00,199.87 594.20,196.20 598.95,193.35 605.60,192.40"/>
    </edge>
    <edge id=":99810000_25" function="internal">
        <lane id=":99810000_25_0" index="0" speed="3.65" length="2.34" shape="592.00,206.00 592.80,206.40 593.60,207.60"/>
    </edge>
    <edge id=":99810000_6" function="internal">
        <lane id=":99810000_6_0" index="0" speed="6.51" length="9.03" shape="605.60,202.00 603.15,202.35 601.40,203.40 600.35,205.15 600.00,207.60"/>
    </edge>
    <edge id=":99810000_7" function="internal">
        <lane id=":99810000_7_0" index="0" speed="15.00" length="27.20" shape="605.60,202.00 578.40,202.00"/>
        <lane id=":99810000_7_1" index="1" speed="15.00" length="27.20" shape="605.60,198.80 578.40,198.80"/>
        <lane id=":99810000_7_2" index="2" speed="15.00" length="27.20" shape="605.60,195.60 578.40,195.60"/>
    </edge>
    <edge id=":99810000_10" function="internal">
        <lane id=":99810000_10_0" index="0" speed="10.36" length="7.98" shape="605.60,195.60 598.95,194.65 597.87,194.00"/>
    </edge>
    <edge id=":99810000_11" function="internal">
        <lane id=":99810000_11_0" index="0" speed="3.65" length="2.34" shape="605.60,195.60 604.40,194.80 604.00,194.00"/>
    </edge>
    <edge id=":99810000_26" function="internal">
        <lane id=":99810000_26_0" index="0" speed="10.36" length="16.53" shape="597.87,194.00 594.20,191.80 591.35,187.05 590.40,180.40"/>
    </edge>
    <edge id=":99810000_27" function="internal">
        <lane id=":99810000_27_0" index="0" speed="3.65" length="2.34" shape="604.00,194.00 604.40,193.20 605.60,192.40"/>
    </edge>
    <edge id=":99810000_12" function="internal">
        <lane id=":99810000_12_0" index="0" speed="6.51" length="9.03" shape="600.00,180.40 600.35,182.85 601.40,184.60 603.15,185.65 605.60,186.00"/>
    </edge>
    <edge id=":99810000_13" function="internal">
        <lane id=":99810000_13_0" index="0" speed="15.00" length="27.20" shape="600.00,180.40 600.00,207.60"/>
        <lane id=":99810000_13_1" index="1" speed="15.00" length="27.20" shape="596.80,180.40 596.80,207.60"/>
        <lane id=":99810000_13_2" index="2" speed="15.00" length="27.20" shape="593.60,180.40 593.60,207.60"/>
    </edge>
    <edge id=":99810000_16" function="internal">
        <lane id=":99810000_16_0" index="0" speed="10.36" length="7.98" shape="593.60,180.40 592.65,187.05 592.00,188.13"/>
    </edge>
    <edge id=":99810000_17" function="internal">
        <lane id=":99810000_17_0" index="0" speed="3.65" length="2.34" shape="593.60,180.40 592.80,181.60 592.00,182.00"/>
    </edge>
    <edge id=":99810000_28" function="internal">
        <lane id=":99810000_28_0" index="0" speed="10.36" length="16.53" shape="592.00,188.13 589.80,191.80 585.05,194.65 578.40,195.60"/>
    </edge>
    <edge id=":99810000_29" function="internal">
        <lane id=":99810000_29_0" index="0" speed="3.65" length="2.34" shape="592.00,182.00 591.20,181.60 590.40,180.40"/>
    </edge>
    <edge id=":99810000_18" function="internal">
        <lane id=":99810000_18_0" index="0" speed="6.51" length="9.03" shape="578.40,186.00 580.85,185.65 582.60,184.60 583.65,182.85 584.00,180.40"/>
    </edge>
    <edge id=":99810000_19" function="internal">
        <lane id=":99810000_19_0" index="0" speed="15.00" length="27.20" shape="578.40,186.00 605.60,186.00"/>
        <lane id=":99810000_19_1" index="1" speed="15.00" length="27.20" shape="578.40,189.20 605.60,189.20"/>
        <lane id=":99810000_19_2" index="2" speed="15.00" length="27.20" shape="578.40,192.40 605.60,192.40"/>
    </edge>
    <edge id=":99810000_22" function="internal">
        <lane id=":99810000_22_0" index="0" speed="10.36" length="7.98" shape="578.40,192.40 585.05,193.35 586.13,194.00"/>
    </edge>
    <edge id=":99810000_23" function="internal">
        <lane id=":99810000_23_0" index="0" speed="3.65" length="2.34" shape="578.40,192.40 579.60,193.20 580.00,194.00"/>
    </edge>
    <edge id=":99810000_30" function="internal">
        <lane id=":99810000_30_0" index="0" speed="10.36" length="16.53" shape="586.13,194.00 589.80,196.20 592.65,200.95 593.60,207.60"/>
    </edge>
    <edge id=":99810000_31" function="internal">
        <lane id=":99810000_31_0" index="0" speed="3.65" length="2.34" shape="580.00,194.00 579.60,194.80 578.40,195.60"/>
    </edge>
    <edge id=":99810001_0" function="internal">
        <lane id=":99810001_0_0" index="0" speed="6.55" length="9.12" shape="397.40,202.00 394.93,202.35 393.16,203.41 392.10,205.18 391.73,207.65"/>
    </edge>
    <edge id=":99810001_1" function="internal">
        <lane id=":99810001_1_0" index="0" speed="7.36" length="11.80" shape="397.40,202.00 393.53,202.35 390.76,203.41 389.10,205.17 388.53,207.64"/>
    </edge>
    <edge id=":99810001_2" function="internal">
        <lane id=":99810001_2_0" index="0" speed="15.00" length="20.85" shape="397.40,202.00 376.55,202.00"/>
        <lane id=":99810001_2_1" index="1" speed="15.00" length="20.85" shape="397.40,198.80 376.55,198.80"/>
        <lane id=":99810001_2_2" index="2" speed="15.00" length="20.85" shape="397.40,195.60 376.55,195.60"/>
    </edge>
    <edge id=":99810001_5" function="internal">
        <lane id=":99810001_5_0" index="0" speed="10.36" length="7.98" shape="397.40,195.60 390.75,194.65 389.67,194.00"/>
    </edge>
    <edge id=":99810001_6" function="internal">
        <lane id=":99810001_6_0" index="0" speed="9.84" length="6.41" shape="397.40,195.60 392.15,194.65 391.29,194.00"/>
    </edge>
    <edge id=":99810001_7" function="internal">
        <lane id=":99810001_7_0" index="0" speed="5.58" length="2.70" shape="397.40,195.60 395.00,194.00"/>
        <lane id=":99810001_7_1" index="1" speed="4.72" length="2.70" shape="397.40,195.60 395.00,194.00"/>
        <lane id=":99810001_7_2" index="2" speed="3.65" length="2.70" shape="397.40,195.60 396.20,194.80 395.80,194.00"/>
    </edge>
    <edge id=":99810001_40" function="internal">
        <lane id=":99810001_40_0" index="0" speed="10.36" length="16.53" shape="389.67,194.00 386.00,191.80 383.15,187.05 382.20,180.40"/>
    </edge>
    <edge id=":99810001_41" function="internal">
        <lane id=":99810001_41_0" index="0" speed="9.84" length="15.58" shape="391.29,194.00 388.40,191.80 386.15,187.05 385.40,180.40"/>
    </edge>
    <edge id=":99810001_42" function="internal">
        <lane id=":99810001_42_0" index="0" speed="5.58" length="11.14" shape="395.00,194.00 393.80,193.20 392.60,190.80 393.80,188.40 397.40,186.00"/>
    </edge>
    <edge id=":99810001_43" function="internal">
        <lane id=":99810001_43_0" index="0" speed="4.72" length="6.46" shape="395.00,194.00 394.20,192.40 395.00,190.80 397.40,189.20"/>
    </edge>
    <edge id=":99810001_44" function="internal">
        <lane id=":99810001_44_0" index="0" speed="3.65" length="2.34" shape="395.80,194.00 396.20,193.20 397.40,192.40"/>
    </edge>
    <edge id=":99810001_10" function="internal">
        <lane id=":99810001_10_0" index="0" speed="6.51" length="9.03" shape="391.80,180.40 392.15,182.85 393.20,184.60 394.95,185.65 397.40,186.00"/>
    </edge>
    <edge id=":99810001_11" function="internal">
        <lane id=":99810001_11_0" index="0" speed="7.33" length="11.73" shape="391.80,180.40 392.15,184.25 393.20,187.00 394.95,188.65 397.40,189.20"/>
    </edge>
    <edge id=":99810001_12" function="internal">
        <lane id=":99810001_12_0" index="0" speed="8.10" length="14.57" shape="391.80,180.40 392.15,185.65 393.20,189.40 394.95,191.65 397.40,192.40"/>
    </edge>
    <edge id=":99810001_13" function="internal">
        <lane id=":99810001_13_0" index="0" speed="15.00" length="27.25" shape="391.80,180.40 391.73,207.65"/>
        <lane id=":99810001_13_1" index="1" speed="15.00" length="27.25" shape="388.60,180.40 388.53,207.64"/>
    </edge>
    <edge id=":99810001_15" function="internal">
        <lane id=":99810001_15_0" index="0" speed="10.69" length="12.24" shape="388.60,180.40 387.56,187.25 385.64,192.21"/>
    </edge>
    <edge id=":99810001_16" function="internal">
        <lane id=":99810001_16_0" index="0" speed="10.14" length="10.47" shape="388.60,180.40 387.56,186.37 385.73,190.38"/>
    </edge>
    <edge id=":99810001_17" function="internal">
        <lane id=":99810001_17_0" index="0" speed="9.85" length="8.71" shape="388.60,180.40 387.85,187.05 386.98,188.87"/>
    </edge>
    <edge id=":99810001_18" function="internal">
        <lane id=":99810001_18_0" index="0" speed="4.72" length="2.61" shape="388.60,180.40 387.00,182.80"/>
        <lane id=":99810001_18_1" index="1" speed="3.65" length="2.61" shape="388.60,180.40 387.80,181.60 387.00,182.00"/>
    </edge>
    <edge id=":99810001_45" function="internal">
        <lane id=":99810001_45_0" index="0" speed="10.69" length="13.90" shape="385.64,192.21 384.84,194.29 380.98,199.78 376.55,202.00"/>
    </edge>
    <edge id=":99810001_46" function="internal">
        <lane id=":99810001_46_0" index="0" speed="10.14" length="12.96" shape="385.73,190.38 384.84,192.35 380.98,196.96 376.55,198.80"/>
    </edge>
    <edge id=":99810001_47" function="internal">
        <lane id=":99810001_47_0" index="0" speed="9.85" length="13.32" shape="386.98,188.87 385.59,191.80 381.82,194.65 376.55,195.60"/>
    </edge>
    <edge id=":99810001_48" function="internal">
        <lane id=":99810001_48_0" index="0" speed="4.72" length="6.46" shape="387.00,182.80 385.40,183.60 383.80,182.80 382.20,180.40"/>
    </edge>
    <edge id=":99810001_49" function="internal">
        <lane id=":99810001_49_0" index="0" speed="3.65" length="2.34" shape="387.00,182.00 386.20,181.60 385.40,180.40"/>
    </edge>
    <edge id=":99810001_20" function="internal">
        <lane id=":99810001_20_0" index="0" speed="6.52" length="9.07" shape="376.55,186.00 379.02,185.65 380.79,184.60 381.85,182.85 382.20,180.40"/>
    </edge>
    <edge id=":99810001_21" function="internal">
        <lane id=":99810001_21_0" index="0" speed="7.34" length="11.77" shape="376.55,186.00 380.42,185.65 383.19,184.60 384.85,182.85 385.40,180.40"/>
    </edge>
    <edge id=":99810001_22" function="internal">
        <lane id=":99810001_22_0" index="0" speed="15.00" length="20.85" shape="376.55,186.00 397.40,186.00"/>
        <lane id=":99810001_22_1" index="1" speed="15.00" length="20.85" shape="376.55,189.20 397.40,189.20"/>
        <lane id=":99810001_22_2" index="2" speed="15.00" length="20.85" shape="376.55,192.40 397.40,192.40"/>
    </edge>
    <edge id=":99810001_25" function="internal">
        <lane id=":99810001_25_0" index="0" speed="10.36" length="7.99" shape="376.55,192.40 383.22,193.35 384.30,194.00"/>
    </edge>
    <edge id=":99810001_26" function="internal">
        <lane id=":99810001_26_0" index="0" speed="9.83" length="6.42" shape="376.55,192.40 381.82,193.35 382.67,194.00"/>
    </edge>
    <edge id=":99810001_27" function="internal">
        <lane id=":99810001_27_0" index="0" speed="5.58" length="2.70" shape="376.55,192.40 378.95,194.00"/>
        <lane id=":99810001_27_1" index="1" speed="4.72" length="2.70" shape="376.55,192.40 378.95,194.00"/>
        <lane id=":99810001_27_2" index="2" speed="3.65" length="2.70" shape="376.55,192.40 377.75,193.20 378.15,194.00"/>
    </edge>
    <edge id=":99810001_50" function="internal">
        <lane id=":99810001_50_0" index="0" speed="10.36" length="16.58" shape="384.30,194.00 387.98,196.21 390.81,200.98 391.73,207.65"/>
    </edge>
    <edge id=":99810001_51" function="internal">
        <lane id=":99810001_51_0" index="0" speed="9.83" length="15.62" shape="382.67,194.00 385.58,196.21 387.81,200.97 388.53,207.64"/>
    </edge>
    <edge id=":99810001_52" function="internal">
        <lane id=":99810001_52_0" index="0" speed="5.58" length="11.14" shape="378.95,194.00 380.15,194.80 381.35,197.20 380.15,199.60 376.55,202.00"/>
    </edge>
    <edge id=":99810001_53" function="internal">
        <lane id=":99810001_53_0" index="0" speed="4.72" length="6.46" shape="378.95,194.00 379.75,195.60 378.95,197.20 376.55,198.80"/>
    </edge>
    <edge id=":99810001_54" function="internal">
        <lane id=":99810001_54_0" index="0" speed="3.65" length="2.34" shape="378.15,194.00 377.75,194.80 376.55,195.60"/>
    </edge>
    <edge id=":99810001_30" function="internal">
        <lane id=":99810001_30_0" index="0" speed="6.50" length="9.03" shape="382.13,207.61 381.80,205.15 380.75,203.40 379.00,202.35 376.55,202.00"/>
    </edge>
    <edge id=":99810001_31" function="internal">
        <lane id=":99810001_31_0" index="0" speed="7.32" length="11.73" shape="382.13,207.61 381.80,203.75 380.76,201.00 379.01,199.35 376.55,198.80"/>
    </edge>
    <edge id=":99810001_32" function="internal">
        <lane id=":99810001_32_0" index="0" speed="8.09" length="14.58" shape="382.13,207.61 381.81,202.35 380.77,198.60 379.02,196.35 376.55,195.60"/>
    </edge>
    <edge id=":99810001_33" function="internal">
        <lane id=":99810001_33_0" index="0" speed="15.00" length="27.22" shape="382.13,207.61 382.20,180.40"/>
        <lane id=":99810001_33_1" index="1" speed="15.00" length="27.22" shape="385.33,207.62 385.40,180.40"/>
    </edge>
    <edge id=":99810001_35" function="internal">
        <lane id=":99810001_35_0" index="0" speed="10.71" length="12.11" shape="385.33,207.62 386.39,200.76 388.27,195.95"/>
    </edge>
    <edge id=":99810001_36" function="internal">
        <lane id=":99810001_36_0" index="0" speed="10.16" length="10.38" shape="385.33,207.62 386.39,201.65 388.19,197.73"/>
    </edge>
    <edge id=":99810001_37" function="internal">
        <lane id=":99810001_37_0" index="0" speed="9.87" length="8.65" shape="385.33,207.62 386.12,200.96 386.95,199.21"/>
    </edge>
    <edge id=":99810001_38" function="internal">
        <lane id=":99810001_38_0" index="0" speed="4.72" length="2.61" shape="385.33,207.62 386.95,205.23"/>
        <lane id=":99810001_38_1" index="1" speed="3.65" length="2.61" shape="385.33,207.62 386.14,206.43 386.94,206.03"/>
    </edge>
    <edge id=":99810001_55" function="internal">
        <lane id=":99810001_55_0" index="0" speed="10.71" length="14.04" shape="388.27,195.95 389.14,193.72 393.00,188.22 397.40,186.00"/>
    </edge>
    <edge id=":99810001_56" function="internal">
        <lane id=":99810001_56_0" index="0" speed="10.16" length="13.07" shape="388.19,197.73 389.13,195.66 392.99,191.05 397.40,189.20"/>
    </edge>
    <edge id=":99810001_57" function="internal">
        <lane id=":99810001_57_0" index="0" speed="9.87" length="13.38" shape="386.95,199.21 388.39,196.21 392.15,193.35 397.40,192.40"/>
    </edge>
    <edge id=":99810001_58" function="internal">
        <lane id=":99810001_58_0" index="0" speed="4.72" length="6.46" shape="386.95,205.23 388.55,204.44 390.15,205.25 391.73,207.65"/>
    </edge>
    <edge id=":99810001_59" function="internal">
        <lane id=":99810001_59_0" index="0" speed="3.65" length="2.34" shape="386.94,206.03 387.74,206.44 388.53,207.64"/>
    </edge>
    <edge id=":99810002_0" function="internal">
        <lane id=":99810002_0_0" index="0" speed="6.51" length="9.03" shape="186.40,207.60 186.05,205.15 185.00,203.40 183.25,202.35 180.80,202.00"/>
    </edge>
    <edge id=":99810002_1" function="internal">
        <lane id=":99810002_1_0" index="0" speed="7.33" length="11.73" shape="186.40,207.60 186.05,203.75 185.00,201.00 183.25,199.35 180.80,198.80"/>
    </edge>
    <edge id=":99810002_2" function="internal">
        <lane id=":99810002_2_0" index="0" speed="8.10" length="14.57" shape="186.40,207.60 186.05,202.35 185.00,198.60 183.25,196.35 180.80,195.60"/>
    </edge>
    <edge id=":99810002_3" function="internal">
        <lane id=":99810002_3_0" index="0" speed="15.00" length="27.20" shape="186.40,207.60 186.40,180.40"/>
    </edge>
    <edge id=":99810002_4" function="internal">
        <lane id=":99810002_4_0" index="0" speed="10.31" length="13.89" shape="186.40,207.60 187.16,200.95 189.11,194.03"/>
    </edge>
    <edge id=":99810002_5" function="internal">
        <lane id=":99810002_5_0" index="0" speed="9.71" length="11.88" shape="186.40,207.60 187.16,201.86 189.07,196.08"/>
    </edge>
    <edge id=":99810002_6" function="internal">
        <lane id=":99810002_6_0" index="0" speed="9.09" length="9.87" shape="186.40,207.60 187.16,202.76 189.01,198.15"/>
    </edge>
    <edge id=":99810002_7" function="internal">
        <lane id=":99810002_7_0" index="0" speed="3.65" length="2.34" shape="186.40,207.60 187.20,206.40 188.00,206.00"/>
    </edge>
    <edge id=":99810002_32" function="internal">
        <lane id=":99810002_32_0" index="0" speed="10.31" length="10.37" shape="189.11,194.03 189.15,193.88 191.97,188.28 195.20,186.00"/>
    </edge>
    <edge id=":99810002_33" function="internal">
        <lane id=":99810002_33_0" index="0" speed="9.71" length="9.51" shape="189.07,196.08 189.15,195.85 191.97,191.12 195.20,189.20"/>
    </edge>
    <edge id=":99810002_34" function="internal">
        <lane id=":99810002_34_0" index="0" speed="9.09" length="8.73" shape="189.01,198.15 189.15,197.80 191.97,193.95 195.20,192.40"/>
    </edge>
    <edge id=":99810002_35" function="internal">
        <lane id=":99810002_35_0" index="0" speed="3.65" length="2.34" shape="188.00,206.00 188.80,206.40 189.60,207.60"/>
    </edge>
    <edge id=":99810002_8" function="internal">
        <lane id=":99810002_8_0" index="0" speed="6.51" length="9.03" shape="195.20,202.00 192.75,202.35 191.00,203.40 189.95,205.15 189.60,207.60"/>
    </edge>
    <edge id=":99810002_9" function="internal">
        <lane id=":99810002_9_0" index="0" speed="15.00" length="14.40" shape="195.20,202.00 180.80,202.00"/>
        <lane id=":99810002_9_1" index="1" speed="15.00" length="14.40" shape="195.20,198.80 180.80,198.80"/>
        <lane id=":99810002_9_2" index="2" speed="15.00" length="14.40" shape="195.20,195.60 180.80,195.60"/>
    </edge>
    <edge id=":99810002_12" function="internal">
        <lane id=":99810002_12_0" index="0" speed="9.32" length="4.87" shape="195.20,195.60 191.35,194.65 190.72,194.00"/>
    </edge>
    <edge id=":99810002_13" function="internal">
        <lane id=":99810002_13_0" index="0" speed="5.58" length="2.70" shape="195.20,195.60 192.80,194.00"/>
        <lane id=":99810002_13_1" index="1" speed="4.72" length="2.70" shape="195.20,195.60 192.80,194.00"/>
        <lane id=":99810002_13_2" index="2" speed="3.65" length="2.70" shape="195.20,195.60 194.00,194.80 193.60,194.00"/>
    </edge>
    <edge id=":99810002_36" function="internal">
        <lane id=":99810002_36_0" index="0" speed="9.32" length="14.76" shape="190.72,194.00 188.60,191.80 186.95,187.05 186.40,180.40"/>
    </edge>
    <edge id=":99810002_37" function="internal">
        <lane id=":99810002_37_0" index="0" speed="5.58" length="11.14" shape="192.80,194.00 191.60,193.20 190.40,190.80 191.60,188.40 195.20,186.00"/>
    </edge>
    <edge id=":99810002_38" function="internal">
        <lane id=":99810002_38_0" index="0" speed="4.72" length="6.46" shape="192.80,194.00 192.00,192.40 192.80,190.80 195.20,189.20"/>
    </edge>
    <edge id=":99810002_39" function="internal">
        <lane id=":99810002_39_0" index="0" speed="3.65" length="2.34" shape="193.60,194.00 194.00,193.20 195.20,192.40"/>
    </edge>
    <edge id=":99810002_16" function="internal">
        <lane id=":99810002_16_0" index="0" speed="6.51" length="9.03" shape="189.60,180.40 189.95,182.85 191.00,184.60 192.75,185.65 195.20,186.00"/>
    </edge>
    <edge id=":99810002_17" function="internal">
        <lane id=":99810002_17_0" index="0" speed="7.33" length="11.73" shape="189.60,180.40 189.95,184.25 191.00,187.00 192.75,188.65 195.20,189.20"/>
    </edge>
    <edge id=":99810002_18" function="internal">
        <lane id=":99810002_18_0" index="0" speed="8.10" length="14.57" shape="189.60,180.40 189.95,185.65 191.00,189.40 192.75,191.65 195.20,192.40"/>
    </edge>
    <edge id=":99810002_19" function="internal">
        <lane id=":99810002_19_0" index="0" speed="15.00" length="27.20" shape="189.60,180.40 189.60,207.60"/>
    </edge>
    <edge id=":99810002_20" function="internal">
        <lane id=":99810002_20_0" index="0" speed="10.31" length="13.89" shape="189.60,180.40 188.84,187.05 186.89,193.97"/>
    </edge>
    <edge id=":99810002_21" function="internal">
        <lane id=":99810002_21_0" index="0" speed="9.71" length="11.88" shape="189.60,180.40 188.84,186.14 186.93,191.92"/>
    </edge>
    <edge id=":99810002_22" function="internal">
        <lane id=":99810002_22_0" index="0" speed="9.09" length="9.87" shape="189.60,180.40 188.84,185.24 186.99,189.85"/>
    </edge>
    <edge id=":99810002_23" function="internal">
        <lane id=":99810002_23_0" index="0" speed="3.65" length="2.34" shape="189.60,180.40 188.80,181.60 188.00,182.00"/>
    </edge>
    <edge id=":99810002_40" function="internal">
        <lane id=":99810002_40_0" index="0" speed="10.31" length="10.37" shape="186.89,193.97 186.85,194.12 184.03,199.72 180.80,202.00"/>
    </edge>
    <edge id=":99810002_41" function="internal">
        <lane id=":99810002_41_0" index="0" speed="9.71" length="9.51" shape="186.93,191.92 186.85,192.15 184.03,196.88 180.80,198.80"/>
    </edge>
    <edge id=":99810002_42" function="internal">
        <lane id=":99810002_42_0" index="0" speed="9.09" length="8.73" shape="186.99,189.85 186.85,190.20 184.03,194.05 180.80,195.60"/>
    </edge>
    <edge id=":99810002_43" function="internal">
        <lane id=":99810002_43_0" index="0" speed="3.65" length="2.34" shape="188.00,182.00 187.20,181.60 186.40,180.40"/>
    </edge>
    <edge id=":99810002_24" function="internal">
        <lane id=":99810002_24_0" index="0" speed="6.51" length="9.03" shape="180.80,186.00 183.25,185.65 185.00,184.60 186.05,182.85 186.40,180.40"/>
    </edge>
    <edge id=":99810002_25" function="internal">
        <lane id=":99810002_25_0" index="0" speed="15.00" length="14.40" shape="180.80,186.00 195.20,186.00"/>
        <lane id=":99810002_25_1" index="1" speed="15.00" length="14.40" shape="180.80,189.20 195.20,189.20"/>
        <lane id=":99810002_25_2" index="2" speed="15.00" length="14.40" shape="180.80,192.40 195.20,192.40"/>
    </edge>
    <edge id=":99810002_28" function="internal">
        <lane id=":99810002_28_0" index="0" speed="9.32" length="4.87" shape="180.80,192.40 184.65,193.35 185.28,194.00"/>
    </edge>
    <edge id=":99810002_29" function="internal">
        <lane id=":99810002_29_0" index="0" speed="5.58" length="2.70" shape="180.80,192.40 183.20,194.00"/>
        <lane id=":99810002_29_1" index="1" speed="4.72" length="2.70" shape="180.80,192.40 183.20,194.00"/>
        <lane id=":99810002_29_2" index="2" speed="3.65" length="2.70" shape="180.80,192.40 182.00,193.20 182.40,194.00"/>
    </edge>
    <edge id=":99810002_44" function="internal">
        <lane id=":99810002_44_0" index="0" speed="9.32" length="14.76" shape="185.28,194.00 187.40,196.20 189.05,200.95 189.60,207.60"/>
    </edge>
    <edge id=":99810002_45" function="internal">
        <lane id=":99810002_45_0" index="0" speed="5.58" length="11.14" shape="183.20,194.00 184.40,194.80 185.60,197.20 184.40,199.60 180.80,202.00"/>
    </edge>
    <edge id=":99810002_46" function="internal">
        <lane id=":99810002_46_0" index="0" speed="4.72" length="6.46" shape="183.20,194.00 184.00,195.60 183.20,197.20 180.80,198.80"/>
    </edge>
    <edge id=":99810002_47" function="internal">
        <lane id=":99810002_47_0" index="0" speed="3.65" length="2.34" shape="182.40,194.00 182.00,194.80 180.80,195.60"/>
    </edge>
    <edge id=":99810003_0" function="internal">
        <lane id=":99810003_0_0" index="0" speed="6.51" length="9.03" shape="186.40,409.40 186.05,406.95 185.00,405.20 183.25,404.15 180.80,403.80"/>
    </edge>
    <edge id=":99810003_1" function="internal">
        <lane id=":99810003_1_0" index="0" speed="7.33" length="11.73" shape="186.40,409.40 186.05,405.55 185.00,402.80 183.25,401.15 180.80,400.60"/>
    </edge>
    <edge id=":99810003_2" function="internal">
        <lane id=":99810003_2_0" index="0" speed="15.00" length="20.80" shape="186.40,409.40 186.40,388.60"/>
    </edge>
    <edge id=":99810003_3" function="internal">
        <lane id=":99810003_3_0" index="0" speed="9.09" length="9.87" shape="186.40,409.40 187.16,404.56 189.01,399.95"/>
    </edge>
    <edge id=":99810003_4" function="internal">
        <lane id=":99810003_4_0" index="0" speed="8.45" length="7.89" shape="186.40,409.40 187.16,405.43 188.91,402.01"/>
    </edge>
    <edge id=":99810003_5" function="internal">
        <lane id=":99810003_5_0" index="0" speed="3.65" length="2.34" shape="186.40,409.40 187.20,408.20 188.00,407.80"/>
    </edge>
    <edge id=":99810003_24" function="internal">
        <lane id=":99810003_24_0" index="0" speed="9.09" length="8.73" shape="189.01,399.95 189.15,399.60 191.97,395.75 195.20,394.20"/>
    </edge>
    <edge id=":99810003_25" function="internal">
        <lane id=":99810003_25_0" index="0" speed="8.45" length="8.05" shape="188.91,402.01 189.15,401.54 191.97,398.58 195.20,397.40"/>
    </edge>
    <edge id=":99810003_26" function="internal">
        <lane id=":99810003_26_0" index="0" speed="3.65" length="2.34" shape="188.00,407.80 188.80,408.20 189.60,409.40"/>
    </edge>
    <edge id=":99810003_6" function="internal">
        <lane id=":99810003_6_0" index="0" speed="6.51" length="9.03" shape="195.20,403.80 192.75,404.15 191.00,405.20 189.95,406.95 189.60,409.40"/>
    </edge>
    <edge id=":99810003_7" function="internal">
        <lane id=":99810003_7_0" index="0" speed="15.00" length="14.40" shape="195.20,403.80 180.80,403.80"/>
        <lane id=":99810003_7_1" index="1" speed="15.00" length="14.40" shape="195.20,400.60 180.80,400.60"/>
    </edge>
    <edge id=":99810003_9" function="internal">
        <lane id=":99810003_9_0" index="0" speed="8.67" length="5.26" shape="195.20,400.60 191.35,399.85 190.31,399.00"/>
    </edge>
    <edge id=":99810003_10" function="internal">
        <lane id=":99810003_10_0" index="0" speed="4.72" length="2.61" shape="195.20,400.60 192.80,399.00"/>
        <lane id=":99810003_10_1" index="1" speed="3.65" length="2.61" shape="195.20,400.60 194.00,399.80 193.60,399.00"/>
    </edge>
    <edge id=":99810003_27" function="internal">
        <lane id=":99810003_27_0" index="0" speed="8.67" length="11.59" shape="190.31,399.00 188.60,397.60 186.95,393.85 186.40,388.60"/>
    </edge>
    <edge id=":99810003_28" function="internal">
        <lane id=":99810003_28_0" index="0" speed="4.72" length="6.46" shape="192.80,399.00 192.00,397.40 192.80,395.80 195.20,394.20"/>
    </edge>
    <edge id=":99810003_29" function="internal">
        <lane id=":99810003_29_0" index="0" speed="3.65" length="2.34" shape="193.60,399.00 194.00,398.20 195.20,397.40"/>
    </edge>
    <edge id=":99810003_12" function="internal">
        <lane id=":99810003_12_0" index="0" speed="6.51" length="9.03" shape="189.60,388.60 189.95,391.05 191.00,392.80 192.75,393.85 195.20,394.20"/>
    </edge>
    <edge id=":99810003_13" function="internal">
        <lane id=":99810003_13_0" index="0" speed="7.33" length="11.73" shape="189.60,388.60 189.95,392.45 191.00,395.20 192.75,396.85 195.20,397.40"/>
    </edge>
    <edge id=":99810003_14" function="internal">
        <lane id=":99810003_14_0" index="0" speed="15.00" length="20.80" shape="189.60,388.60 189.60,409.40"/>
    </edge>
    <edge id=":99810003_15" function="internal">
        <lane id=":99810003_15_0" index="0" speed="9.09" length="9.87" shape="189.60,388.60 188.84,393.44 186.99,398.05"/>
    </edge>